! B97-3c noautostart miniprint nopop
%maxcore  1000
%pal nprocs  20 end
* xyz   0   2
Cl    -2.07200000    0.29500000    0.13700000
O     -1.39500000    1.72100000    0.84500000
O     -0.88100000   -0.48400000   -0.84700000
O     -2.57900000   -0.78600000    1.38900000
O     -3.43400000    0.72700000   -0.83800000
 *
